224
NP
P5     -2.085160    9.591837    1.910177
P5     -5.392375    8.367347   -0.953835
P5      6.943605    6.734694    2.535793
P5     -7.158459    6.326531    2.954908
P5      8.623970    4.693878   -1.895956
P5     -9.511792    3.061224    0.393342
P5      9.809043    1.428571    1.319793
P5     -9.524944   -0.204082   -3.038717
P5     -9.422895   -2.244898    2.483845
P5      9.186152   -3.877551   -0.761054
P5     -8.309307   -5.510204   -0.770105
P5      6.749654   -7.142857    1.849800
P5     -5.832848   -7.551020    2.993321
P5     -4.332879   -8.775510   -2.053432
P5      3.781636   -9.183673   -1.165919
P5     -1.429818   -9.591837    2.439731
P5      0.345969    9.183673   -3.942137
P5      2.917363    8.775510    3.805183
P5      5.108128    7.959184   -3.249373
P5     -1.701985    7.551020    6.331298
P5     -3.225677    7.142857   -6.210845
P5      3.416444    5.918367   -7.300742
P5      2.497499    5.510204    7.962421
P5     -7.441278    5.102041   -4.312373
P5     -5.196340    4.285714    7.391259
P5     -1.184563    3.877551   -9.141193
P5      7.171549    3.469388    6.044189
P5      6.834280    2.653061   -6.801021
P5     -0.450125    2.244898    9.734363
P5     -6.298090    1.836735   -7.547216
P5     -8.165736    1.020408    5.681507
P5      2.190696    0.612245   -9.737865
P5      4.970773    0.204082    8.674662
P5      9.060881   -0.612245   -4.186357
P5     -3.840459   -1.020408    9.176581
P5     -3.349809   -1.428571   -9.313322
P5      8.701300   -1.836735    4.573159
P5      5.214564   -2.653061   -8.109845
P5      1.612448   -3.061224    9.382373
P5     -7.415158   -3.469388   -5.742715
P5     -6.135536   -4.285714    6.632334
P5      0.043075   -4.693878   -8.829816
P5      5.778571   -5.102041    6.370031
P5      6.420730   -5.918367   -4.873105
P5     -1.386112   -6.326531    7.619298
P5     -3.937101   -6.734694   -6.256447
P5      2.104486   -7.959184   -5.676490
P5      2.064718   -8.367347    5.071927
N1     -2.856066   13.138043    2.616390
N2     -1.742618   15.079716    1.112182
R3     -3.418456   15.725066    3.131586
N1     -7.385994   11.460846   -1.306478
N2     -6.424530   13.519893   -2.758516
R3     -8.840376   13.717611   -1.563738
N1      9.510731    9.224583    3.473304
N2     10.584198   10.822848    1.584992
R3     11.383497   11.041004    4.157235
N1     -9.805019    8.665518    4.047369
N2     -9.298554   11.312207    4.152391
R3    -11.735733   10.371852    4.844340
N1     11.812346    6.429255   -2.596911
N2     12.143755    7.738534   -4.931105
R3     14.138325    7.695245   -3.108271
N1    -13.028405    4.192992    0.538765
N2    -13.603321    6.682710    1.400901
R3    -15.593839    5.018638    0.644854
N1     13.435553    1.956730    1.807735
N2     14.795289    3.571300    0.129407
R3     16.081159    2.342031    2.163697
N1    -13.046419   -0.279533   -4.162163
N2    -14.890215    1.233478   -2.903707
R3    -15.615400   -0.334576   -4.981738
N1    -12.906642   -3.074861    3.402149
N2    -13.888081   -2.295402    5.789978
R3    -15.448099   -3.680335    4.072069
N1     12.582373   -5.311124   -1.042424
N2     14.492361   -3.982030   -2.405493
R3     15.059978   -6.356942   -1.247688
N1    -11.381349   -7.547386   -1.054821
N2    -12.483277   -8.631666    1.154839
R3    -13.622459   -9.033549   -1.262526
N1      9.245075   -9.783649    2.533692
N2     11.873994   -9.252302    2.252703
R3     11.065530  -11.710155    3.032603
N1     -7.989316  -10.342715    4.099985
N2     -7.625184  -11.435918    6.538185
R3     -9.562498  -12.379307    4.907316
N1     -5.934791  -12.019912   -2.812608
N2     -5.067350  -14.263702   -1.593817
R3     -7.103416  -14.386762   -3.366441
N1      5.179749  -12.578977   -1.596972
N2      7.845561  -12.914149   -1.828506
R3      6.199697  -15.055914   -1.911433
N1     -1.958437  -13.138043    3.341726
N2     -0.165398  -14.407608    4.905605
R3     -2.344075  -15.725066    3.999748
N1      0.539563   14.322586   -6.148041
R2     -1.332017   16.220978   -7.633908
R3      1.667147   16.804496   -6.856332
R4      0.698560   18.543132   -7.959731
N1      4.549833   13.686027    5.934451
R2      4.140087   16.654195    5.354290
R3      5.877256   15.443410    7.690171
R4      5.890566   17.718992    7.683201
N1      7.966486   12.412908   -5.067626
R2      7.676394   14.571156   -7.205922
R3     10.063296   14.290899   -5.165272
R4     10.314031   16.070714   -6.560942
N1     -2.654365   11.776349    9.874106
R2     -4.746947   13.959831   10.283995
R3     -2.187927   13.485702   12.063523
R4     -3.436547   15.246575   12.783784
N1     -5.030671   11.139789   -9.686251
R2     -7.695583   12.193873  -10.735846
R3     -4.839050   13.294981  -11.489423
R4     -6.513097   14.422436  -12.540572
N1      5.328185    9.230111  -11.386022
R2      4.246985   10.575185  -13.903220
R3      7.202728   10.764816  -12.822606
R4      6.898282   11.950018  -14.741228
N1      3.895026    8.593552   12.417957
R2      4.601142   11.499005   13.029709
R3      4.468947    9.142638   15.120200
R4      5.042803   11.125879   16.077251
N1    -11.605198    7.956992   -6.725449
R2    -14.619956    8.287086   -6.383731
R3    -12.830428    9.721435   -8.547139
R4    -15.024990   10.301740   -8.707289
N1     -8.104058    6.683874   11.527189
R2    -10.826743    6.356251   12.866648
R3     -8.631060    8.487924   13.624966
R4    -10.492143    8.653461   14.923993
N1     -1.847410    6.047314  -14.256335
R2     -4.143120    6.708254  -16.155643
R3     -1.076114    7.170058  -16.721603
R4     -2.391800    7.829322  -18.457357
N1     11.184537    5.410755    9.426340
R2     13.745872    7.053487    9.190770
R3     12.548504    5.855796   11.850083
R4     14.480370    7.005183   12.204071
N1     10.658541    4.137636  -10.606672
R2     10.745636    4.835113  -13.576594
R3     13.211009    4.775309  -11.612297
R4     13.799374    5.356905  -13.732220
N1     -0.702001    3.501077   15.181425
R2      0.209982    5.750980   17.030945
R3     -1.358510    3.157363   17.898751
R4     -0.908865    4.532765   19.655051
N1     -9.822315    2.864517  -11.770416
R2    -12.836842    3.046574  -12.210848
R3    -10.612956    3.466071  -14.405946
R4    -12.716731    3.708626  -15.238894
N1    -12.735042    1.591398    8.860710
R2    -13.556255    1.087263   11.756561
R3    -15.403126    2.247714    9.480046
R4    -16.487773    2.060348   11.471763
N1      3.416545    0.954839  -15.186886
R2      1.916526    1.080456  -17.841818
R3      5.047871    1.120801  -17.476915
R4      4.423325    1.236209  -19.662121
N1      7.752271    0.318280   13.528747
R2     10.651010    0.445756   14.475090
R3      8.099806    0.328043   16.323765
R4     10.036692    0.412070   17.515366
N1     14.131083   -0.954839   -6.528919
R2     15.322267   -1.139824   -9.332731
R3     16.942665   -1.089207   -6.628688
R4     18.295197   -1.236209   -8.452845
N1     -5.989467   -1.591398   14.311525
R2     -8.359156   -2.989859   15.631896
R3     -6.188737   -1.235182   17.098352
R4     -7.754429   -2.060348   18.528811
N1     -5.224263   -2.227958  -14.524782
R2     -7.910725   -2.433049  -15.958435
R3     -5.068376   -2.662043  -17.303319
R4     -6.763736   -2.884487  -18.804910
N1     13.570291   -2.864517    7.132164
R2     16.409994   -3.670492    6.356928
R3     15.367821   -3.134031    9.283733
R4     17.569151   -3.708626    9.233853
N1      8.132480   -4.137636  -12.647875
R2      7.586816   -4.776522  -15.581913
R3     10.405776   -4.806490  -14.170295
R4     10.528940   -5.356905  -16.374921
N1      2.514726   -4.774195   14.632472
R2      3.983332   -7.040629   16.054082
R3      2.346310   -4.732103   17.443675
R4      3.255760   -6.181044   18.944333
N1    -11.564462   -5.410755   -8.956169
R2    -14.603138   -5.662479   -8.823583
R3    -12.767031   -6.596068  -11.210468
R4    -14.972250   -7.005183  -11.595352
N1     -9.568800   -6.683874   10.343593
R2    -12.012353   -5.907357   11.999060
R3    -10.601492   -8.726819   11.984605
R4    -12.388511   -8.653461   13.391618
N1      0.067178   -7.320433  -13.770721
R2     -1.957004   -8.190128  -15.882785
R3      1.160796   -8.642499  -16.004360
R4      0.086974   -9.477601  -17.828644
N1      9.012089   -7.956992    9.934513
R2     10.890863  -10.360965    9.859535
R3     10.209607   -8.617749   12.396697
R4     11.667750  -10.301740   12.861991
N1     10.013581   -9.230111   -7.599951
R2     10.089167  -10.840416  -10.191418
R3     12.414917  -10.623664   -8.073871
R4     12.964359  -11.950018   -9.839486
N1     -2.161740   -9.866671   11.882833
R2     -3.903558  -12.288597   12.526913
R3     -1.761857  -10.983500   14.437394
R4     -2.798756  -12.774157   15.384437
N1     -6.140187  -10.503230   -9.757371
R2     -8.912520  -11.422168  -10.642931
R3     -6.161925  -12.575135  -11.665180
R4     -7.949562  -13.598296  -12.632649
N1      3.282094  -12.412908   -8.852886
R2      1.861984  -14.170006  -10.904810
R3      4.838111  -14.504385   -9.919438
R4      4.249254  -16.070714  -11.461633
N1      3.220073  -13.049468    7.910028
R2      2.638934  -16.036954    7.682647
R3      4.314480  -14.641360    9.959699
R4      4.168956  -16.894853   10.240936
