178
NP
N1     -2.959694   12.045975    2.711322
N2     -1.843742   14.053687    1.298436
R3     -3.588390   14.604771    3.287259
N1     -7.586547   10.092574   -1.341953
N2     -6.696303   12.277592   -2.647964
R3     -9.198074   12.236429   -1.627010
N1      9.631862    7.488038    3.517540
N2     10.787655    9.125869    1.713612
R3     11.677853    9.078641    4.264733
N1     -9.889776    6.836905    4.082356
N2     -9.592177    9.473460    4.564551
R3    -11.990554    8.289194    4.949526
N1     11.691736    4.232370   -2.570395
N2     12.140574    5.657983   -4.815094
R3     14.175284    5.131406   -3.116396
N1    -12.581575    1.627834    0.520288
N2    -13.612952    3.678780    1.935345
R3    -15.254142    1.973618    0.630807
N1     12.546431   -0.976701    1.688105
N2     14.219817    0.571730    0.247742
R3     15.211533   -1.184171    2.046690
N1    -11.605320   -3.581236   -3.702414
N2    -13.630718   -3.619358   -1.922297
R3    -14.070512   -4.341959   -4.488877
N1    -10.345825   -6.836905    2.727126
N2    -10.971218   -7.359108    5.297863
R3    -12.543476   -8.289194    3.306420
N1      8.460759   -9.441440   -0.700957
N2     11.012963   -8.909137   -1.390458
R3     10.257986  -11.446982   -0.849853
N1      3.763407  -11.394841    4.148606
N2      6.312810  -11.757655    4.949487
R3      4.562826  -13.815324    5.029850
N1     -3.996730  -12.045975   -0.370416
N2     -2.663027  -13.946188    1.001782
R3     -4.845712  -14.604771   -0.449099
Au     -2.330998    9.487179    2.135386
Au     -5.975019    7.948718   -1.056897
Au      7.585870    5.897436    2.770348
Au     -7.788999    5.384615    3.215185
Au      9.208188    3.333333   -2.024394
Au     -9.909008    1.282051    0.409769
Au      9.881329   -0.769231    1.329519
Au     -9.140128   -2.820513   -2.915950
Au     -8.148174   -5.384615    2.147832
Au      6.663532   -7.435897   -0.552060
Au      2.963987   -8.974359    3.267363
Au     -3.147748   -9.487179   -0.291733
N1      0.562919   13.098710   -6.414167
R2     -1.307717   14.939481   -7.971981
R3      1.705098   15.531690   -7.256207
R4      0.740163   17.223060   -8.433776
N1      4.732812   12.350212    6.173116
R2      4.556008   15.352778    5.655588
R3      6.059945   13.969897    8.056819
R4      6.223018   16.238885    8.116826
N1      8.234390   10.853217   -5.238045
R2      8.118292   12.891821   -7.506329
R3     10.441483   12.595894   -5.395569
R4     10.827127   14.270536   -6.887332
N1     -2.734229   10.104719   10.171197
R2     -4.826363   12.258229   10.718803
R3     -2.333178   11.591240   12.529674
R4     -3.595148   13.286361   13.373771
N1     -5.163305    9.356221   -9.941630
R2     -7.877444   10.268998  -10.997466
R3     -5.064080   11.308034  -11.969826
R4     -6.789059   12.302186  -13.071921
N1      5.402535    7.110728  -11.544902
R2      4.386399    8.218126  -14.201148
R3      7.350829    8.373948  -13.139086
R4      7.103614    9.349661  -15.180010
N1      3.931417    6.362230   12.533977
R2      5.229768    8.971761   13.439037
R3      4.264708    6.631032   15.317799
R4      5.169290    8.365486   16.480512
N1    -11.656955    5.613733   -6.755444
R2    -14.665304    5.820714   -6.284811
R3    -13.092948    6.966128   -8.765904
R4    -15.327344    7.381311   -8.882509
N1     -8.053600    4.116737   11.455418
R2    -10.302693    2.971085   13.171099
R3     -8.954875    5.798970   13.526842
R4    -10.589413    5.412962   15.062350
N1     -1.825076    3.368240  -14.083986
R2     -4.136966    3.757658  -16.037961
R3     -1.070212    4.038525  -16.713415
R4     -2.399732    4.428787  -18.518568
N1     10.979347    2.619742    9.253405
R2     13.898499    3.499069    9.112570
R3     12.286272    2.834300   11.739147
R4     14.436380    3.444612   12.166996
N1     10.315211    1.122747  -10.265012
R2     10.470779    1.325468  -13.306262
R3     12.919844    1.307371  -11.320853
R4     13.563129    1.476262  -13.497125
N1     -0.673975    0.374249   14.575332
R2      1.247930    0.702136   16.923367
R3     -1.872374    0.297256   17.123059
R4     -0.886188    0.492087   19.164622
N1     -9.348527   -0.374249  -11.202660
R2    -12.370256   -0.399277  -11.630479
R3    -10.175984   -0.458432  -13.893613
R4    -12.292069   -0.492087  -14.730007
N1    -11.882135   -1.871244    8.267280
R2    -12.775398   -1.257067   11.120238
R3    -14.502410   -2.685616    8.902857
R4    -15.623426   -2.460437   10.870373
N1      3.151462   -2.619742  -14.008563
R2      1.645959   -2.988284  -16.637658
R3      4.773717   -3.106132  -16.259055
R4      4.143753   -3.444612  -18.419397
N1      7.060836   -3.368240   12.322101
R2      9.654932   -4.752882   13.139372
R3      7.519860   -3.508883   15.097441
R4      9.284060   -4.428787   16.201922
N1     12.492080   -4.865235   -5.771658
R2     13.500449   -5.864223   -8.473456
R3     15.210006   -5.601130   -5.837494
R4     16.425423   -6.397137   -7.588962
N1     -5.201385   -5.613733   12.428443
R2     -7.822834   -6.787295   13.460557
R3     -5.161409   -6.451728   15.117154
R4     -6.839129   -7.381311   16.341749
N1     -4.445937   -6.362230  -12.360836
R2     -7.083716   -7.007951  -13.753555
R3     -4.200453   -7.676141  -14.840025
R4     -5.845815   -8.365486  -16.252855
N1     11.283029   -7.110728    5.930044
R2     13.400732   -9.127213    5.056190
R3     13.095590   -7.890146    7.940051
R4     14.835681   -9.349661    7.797218
N1      6.375046   -8.607724   -9.914661
R2      5.614407  -10.020241  -12.510951
R3      8.440738  -10.098576  -11.116025
R4      8.382337  -11.318011  -13.036459
N1      1.897434   -9.356221   11.040628
R2      1.650241  -12.358083   11.532787
R3      2.523326  -10.196256   13.655126
R4      2.494874  -12.302186   14.516957
N1     -8.327077  -10.104719   -6.448957
R2    -11.288881  -10.817958   -6.632017
R3     -8.920308  -12.357729   -8.031683
R4    -10.948999  -13.286361   -8.479520
N1     -6.014160  -11.601714    6.501131
R2     -8.811576  -12.673454    7.084517
R3     -6.092290  -14.053949    7.884403
R4     -7.907821  -15.254710    8.548122
N1      0.037946  -12.350212   -7.778524
R2     -1.943473  -14.010915   -9.400418
R3      1.102313  -14.684015   -8.941917
R4      0.049894  -16.238885  -10.227724
Au      0.385674    8.974359   -4.394558
Au      3.242606    8.461538    4.229406
Au      5.641653    7.435897   -3.588758
Au     -1.873311    6.923077    6.968623
Au     -3.537551    6.410256   -6.811339
Au      3.701455    4.871795   -7.909794
Au      2.693544    4.358974    8.587442
Au     -7.986565    3.846154   -4.628378
Au     -5.517788    2.820513    7.848485
Au     -1.250420    2.307692   -9.649404
Au      7.522313    1.794872    6.339814
Au      7.067292    0.769231   -7.032899
Au     -0.461763    0.256410    9.986042
Au     -6.404985   -0.256410   -7.675313
Au     -8.140843   -1.282051    5.664187
Au      2.159171   -1.794872   -9.597730
Au      4.837612   -2.307692    8.442278
Au      8.558737   -3.333333   -3.954354
Au     -3.563641   -3.846154    8.515137
Au     -3.046058   -4.358974   -8.468818
Au      7.730376   -4.871795    4.062869
Au      4.367754   -5.897436   -6.792862
Au      1.299995   -6.410256    7.564299
Au     -5.705156   -6.923077   -4.418393
Au     -4.120500   -7.948718    4.454140
Au      0.025998   -8.461538   -5.329324
